<?xml version="1.0" encoding="UTF-8"?>
<routes xmlns:xsi="http://www.w3.org/2001/XMLSchema-instance" xsi:noNamespaceSchemaLocation="http://sumo.dlr.de/xsd/routes_file.xsd">

  <vType accel="5.0" decel="5.0" id="Ev" length="5.0" maxSpeed="150.0">
    <param key="has.battery.device" value="true"/>
    <param key="maximumBatteryCapacity" value="24000"/>
    <param key="maximumPower" value="80000"/>
    <param key="vehicleMass" value="1595"/>
    <param key="frontSurfaceArea" value="2.27"/>
    <param key="airDragCoefficient" value="0.28"/>
    <param key="internalMomentOfInertia" value="0.0"/>
    <param key="radialDragCoefficient" value="0.0"/>
    <param key="rollDragCoefficient" value="0.0127"/>
    <param key="constantPowerIntake" value="0.0"/>
    <param key="propulsionEfficiency" value="0.7385"/>
    <param key="recuperationEfficiency" value="0.3417"/>    
  </vType>

  <route id="route0" edges="1to2 out" />

  <vehicle depart="1" id="veh0" route="route0" type="Ev">
    <param key="actualBatteryCapacity" value="24000"/>
  </vehicle>
</routes>
